output/ny_only_package_a/independent_replay_bus.csv
source_bus,bus_type,vm_pu,vmin_pu,vmax_pu,p_mismatch_mw,q_mismatch_mvar,voltage_below_min_pu,voltage_above_max_pu,violated,invalid_voltage_bounds
1,1,1.01487680248945,0.9,1.1,-4.59010607301025e-12,-3.08086889333481e-12,0,0,0,0
2,1,1.00956364680907,0.9,1.1,5.7065463465733e-14,-2.2422283485219e-13,0,0,0,0
3,1,1.01663867972829,0.9,1.1,-1.50990331349021e-13,-2.24061220965854e-12,0,0,0,0
4,1,1.01250606834053,0.9,1.1,7.75912667450029e-12,3.19300141882195e-11,0,0,0,0
5,1,1.01847535322033,0.9,1.1,2.06727968077303e-11,-1.06732591514946e-10,0,0,0,0
6,2,1.03541833777559,0.9,1.1,-3.5527136788005e-14,5.55111512312578e-17,0,0,0,0
7,1,1.03267872776206,0.9,1.1,1.11111120304486e-12,-3.80381490194814e-12,0,0,0,0
8,1,1.01335272272013,0.9,1.1,4.78728168218368e-13,-1.37303363123564e-12,0,0,0,0
9,1,1.05585832207041,0.9,1.1,9.9475983006414e-14,2.60763632908834e-12,0,0,0,0
10,1,1.00316455948391,0.9,1.1,6.3948846218409e-14,8.13932254928318e-13,0,0,0,0
11,1,1.01682515351153,0.9,1.1,8.61533067109121e-12,3.53612972237016e-11,0,0,0,0
12,1,1.0238847283734,0.9,1.1,6.82431888776591e-12,1.46067489700807e-10,0,0,0,0
13,1,1.01929021004424,0.9,1.1,-1.77280412572145e-12,1.81157172596258e-12,0,0,0,0
14,1,1.0192156085418,0.9,1.1,2.37410091585843e-12,8.57622349872966e-12,0,0,0,0
15,2,1.02675301736705,0.9,1.1,2.38031816479634e-12,-5.09592368302947e-13,0,0,0,0
16,1,1.00462210387368,0.9,1.1,-9.50350909079134e-13,-7.8687056870308e-13,0,0,0,0
17,2,1.06356342351299,0.9,1.1,2.1600499167107e-12,5.44986278327997e-12,0,0,0,0
18,2,1.06856561610029,0.9,1.1,6.05382410867605e-12,-4.38404867963982e-12,0,0,0,0
19,2,1.03691516002248,0.9,1.1,-2.27373675443232e-12,3.08375547319883e-12,0,0,0,0
20,1,1.0192907216425,0.9,1.1,2.1476154188349e-12,-1.81243908770057e-12,0,0,0,0
21,1,1.01914733777935,0.9,1.1,8.44124770082999e-12,-3.08464365161853e-12,0,0,0,0
22,1,1.00557891089221,0.9,1.1,-1.95621296938953e-13,-6.49255497454926e-13,0,0,0,0
23,1,0.999656164788245,0.9,1.1,-3.73034936274053e-14,2.83401774270331e-12,0,0,0,0
24,2,1.02516672270229,0.9,1.1,3.59534624294611e-12,-2.73869815714534e-12,0,0,0,0
25,1,1.03140206126846,0.9,1.1,1.98951966012828e-13,6.7914424084492e-13,0,0,0,0
26,2,1.07531962286332,0.9,1.1,2.27373675443232e-13,-1.2170175978099e-10,0,0,0,0
27,2,1.01470979604047,0.9,1.1,6.43183284410043e-11,-4.46149783783767e-11,0,0,0,0
28,2,1.01903510384638,0.9,1.1,1.27391430737589e-11,1.44711499727723e-11,0,0,0,0
29,2,1.0177488772216,0.9,1.1,-7.67386154620908e-13,5.6843418860808e-14,0,0,0,0
30,2,1.01653448178435,0.9,1.1,-2.91322521661641e-13,-4.2454928461666e-13,0,0,0,0
31,2,1.01431009551866,0.9,1.1,1.73372427525464e-12,1.39989131398011e-11,0,0,0,0
32,2,1.01402807706936,0.9,1.1,-4.34852154285181e-12,-9.27258270166931e-12,0,0,0,0
33,2,1.02053865655747,0.9,1.1,-4.9737991503207e-13,3.38395977905748e-13,0,0,0,0
34,2,1.03435937158527,0.9,1.1,-1.01465502666542e-11,2.91322521661641e-13,0,0,0,0
35,1,1.01640290178911,0.9,1.1,-1.01252339845814e-11,-9.26022591940523e-11,0,0,0,0
36,1,1.01635264635099,0.9,1.1,-3.61950469596195e-11,9.39887057072042e-11,0,0,0,0
37,2,1.01522175270501,0.9,1.1,4.40536496171262e-12,-1.11910480882216e-12,0,0,0,0
38,2,1.01443690212012,0.9,1.1,4.2632564145606e-14,4.01456645704457e-13,0,0,0,0
39,2,1.01790164237677,0.9,1.1,3.41060513164848e-13,2.95585778076202e-12,0,0,0,0
40,1,1.04466971217509,0.9,1.1,1.71862524211974e-13,1.01620101222721e-12,0,0,0,0
41,2,1.0094659251677,0.9,1.1,2.20126139538479e-11,-7.48556772123266e-12,0,0,0,0
42,1,1.00578508249441,0.9,1.1,-1.4352963262354e-12,-1.7382623118678e-11,0,0,0,0
43,1,1.00482252361607,0.9,1.1,-8.24140755639746e-12,3.59400009752875e-12,0,0,0,0
44,1,1.00481074643739,0.9,1.1,-6.14219786143622e-12,1.0218562107589e-11,0,0,0,0
45,1,1.00481914380539,0.9,1.1,8.37374614093278e-12,-3.03229663600746e-12,0,0,0,0
46,1,1.00573401265587,0.9,1.1,2.22755147660791e-12,1.25399690631411e-11,0,0,0,0
47,1,1.01106505927239,0.9,1.1,-3.06865644006393e-13,8.79504802320241e-14,0,0,0,0
48,1,1.01070562957973,0.9,1.1,6.3948846218409e-14,7.57727214306669e-13,0,0,0,0
49,1,0.998397185792664,0.9,1.1,-3.23296944770846e-13,-4.79945944098503e-12,0,0,0,0
50,1,1.01536559717268,0.9,1.1,-4.2543746303636e-13,7.97278909558941e-13,0,0,0,0
51,1,1.01621072829092,0.9,1.1,3.99680288865056e-14,-2.13752626709862e-12,0,0,0,0
52,2,1.01746760372845,0.9,1.1,-1.03028696685215e-13,0,0,0,0,0
53,2,1.02253865821879,0.9,1.1,-1.13686837721616e-13,9.9475983006414e-14,0,0,0,0
54,1,1.03974331686624,0.9,1.1,-8.54675408011474e-13,8.96989100960132e-13,0,0,0,0
55,1,1.02074866873527,0.9,1.1,5.86197757002083e-14,-1.66533453693773e-13,0,0,0,0
56,1,1.02182089290978,0.9,1.1,2.46913600676635e-13,-5.24580379135386e-13,0,0,0,0
57,1,1.02400865832183,0.9,1.1,1.95399252334028e-14,-4.57966997657877e-13,0,0,0,0
58,1,1.03658104315964,0.9,1.1,-1.3855583347322e-13,-4.10158018659956e-12,0,0,0,0
59,1,1.03118220435049,0.9,1.1,-2.45137243837235e-13,2.62984078958084e-13,0,0,0,0
60,2,1.03938075951612,0.9,1.1,-1.15463194561016e-13,-1.33226762955019e-15,0,0,0,0
61,1,1.02951373045857,0.9,1.1,-1.45661260830821e-13,2.03309591384482e-13,0,0,0,0
62,1,1.06296118664947,0.9,1.1,1.61004979487493e-11,-2.17219409468071e-10,0,0,0,0
63,2,1.06297426991486,0.9,1.1,-8.42419467517175e-11,2.7227997634327e-11,0,0,0,0
64,1,1.00777383182771,0.9,1.1,8.81139605724002e-11,7.44892862669655e-11,0,0,0,0
65,1,1.0068508751037,0.9,1.1,9.29922805426031e-13,8.95637730646826e-13,0,0,0,0
66,1,1.00114748157898,0.9,1.1,-8.07585109896536e-11,3.37717701026641e-11,0,0,0,0
67,1,1.00135869958728,0.9,1.1,-2.02060590481778e-12,2.81719092498633e-13,0,0,0,0
68,1,1.00392299525684,0.9,1.1,1.35891298214119e-13,-5.11396480717963e-13,0,0,0,0
69,2,1.00219182923366,0.9,1.1,-1.43671741170692e-11,3.46034312315169e-12,0,0,0,0
70,1,1.00207002691464,0.9,1.1,-1.3197798409692e-10,1.48816375888927e-10,0,0,0,0
71,1,1.00895691594226,0.9,1.1,2.1316282072803e-13,1.18793863634892e-12,0,0,0,0
72,1,1.00560147382856,0.9,1.1,-2.45501396989312e-11,6.11765846314505e-11,0,0,0,0
73,1,1.00549999860612,0.9,1.1,4.13269418686468e-12,2.41003397793982e-11,0,0,0,0
74,1,1.00511374451937,0.9,1.1,-3.64686059128871e-12,8.62226956499512e-12,0,0,0,0
75,1,1.0047161675575,0.9,1.1,-4.24775770113683e-11,3.59692310658577e-10,0,0,0,0
76,1,1.00470756155232,0.9,1.1,-2.21991314219849e-11,3.37077588064005e-11,0,0,0,0
77,1,1.00421752329024,0.9,1.1,5.02708985550271e-13,6.53296861052866e-13,0,0,0,0
78,1,1.00688656888968,0.9,1.1,-2.57571741713036e-14,-5.97438765126412e-13,0,0,0,0
79,2,1.0748228256732,0.9,1.1,-2.8705926524708e-11,1.59445789904566e-11,0,0,0,0
80,2,1.01750995310416,0.9,1.1,-3.25428572978126e-12,-2.52242671194836e-13,0,0,0,0
81,1,1.0478351111818,0.9,1.1,-1.26831878333178e-12,4.19733692247348e-12,0,0,0,0
82,2,1.01474460530676,0.9,1.1,-2.87627699435689e-11,-9.80406866801786e-11,0,0,0,0
83,2,1.03145325762955,0.9,1.1,9.32587340685131e-13,-1.03939079565407e-12,0,0,0,0
84,2,1.01466866212055,0.9,1.1,7.105427357601e-14,-1.43252076867384e-12,0,0,0,0
85,1,1.00118518315574,0.9,1.1,-8.99724739156227e-13,-2.21263979360842e-13,0,0,0,0
86,1,1.01028343569443,0.9,1.1,-3.01536573488193e-12,-1.00631308841415e-12,0,0,0,0
87,1,1.01026984508342,0.9,1.1,3.19033688356285e-12,3.34697547454965e-12,0,0,0,0
88,1,1.01037796786143,0.9,1.1,-1.21600507441144e-11,-2.44630704582249e-12,0,0,0,0
89,1,1.01045135626825,0.9,1.1,-3.06710212782946e-11,-3.19407694737706e-11,0,0,0,0
90,1,1.0108217491791,0.9,1.1,-3.46034312315169e-12,2.1689247620138e-12,0,0,0,0
91,1,1.01145379403725,0.9,1.1,1.22035714866797e-12,2.68708666428807e-13,0,0,0,0
92,1,1.00284890335062,0.9,1.1,1.01252339845814e-13,-1.38083988687754e-13,0,0,0,0
93,1,1.01916386745543,0.9,1.1,-2.39808173319034e-13,1.74582570622306e-12,0,0,0,0
94,1,1.01390818243853,0.9,1.1,3.71347397276622e-11,-5.21048482138298e-11,0,0,0,0
95,2,1.01432074478215,0.9,1.1,1.09423581307055e-12,2.66453525910038e-15,0,0,0,0
96,1,1.0117166799537,0.9,1.1,-1.73339564923936e-10,-4.38275804537369e-10,0,0,0,0
97,1,1.01177271870342,0.9,1.1,-2.17958984194411e-12,-5.85018145038418e-12,0,0,0,0
98,1,1.01089945544787,0.9,1.1,8.88178419700125e-15,-7.36216643204557e-13,0,0,0,0
99,1,1.00715952719415,0.9,1.1,-2.06057393370429e-13,-8.65973959207622e-13,0,0,0,0
100,1,1.00295043369224,0.9,1.1,-1.07469588783715e-13,-3.25434124093249e-13,0,0,0,0
101,1,1.00164259139111,0.9,1.1,-1.61826108069363e-12,2.84248319326608e-11,0,0,0,0
102,1,1.00167443177696,0.9,1.1,-3.09627878891661e-11,-1.61044788615783e-11,0,0,0,0
103,1,1.00237194386609,0.9,1.1,8.5442763975152e-13,-1.19409690468864e-12,0,0,0,0
104,1,1.01071767067056,0.9,1.1,8.42881320295419e-13,-1.52690360355479e-12,0,0,0,0
105,1,1.01023713604674,0.9,1.1,5.93125548675744e-11,-4.4426268219766e-11,0,0,0,0
106,1,1.01041961048321,0.9,1.1,1.89116278193069e-10,3.95784099938012e-11,0,0,0,0
107,1,1.01113573251415,0.9,1.1,2.804867449413e-12,-4.3680337125096e-12,0,0,0,0
108,1,1.03344233372311,0.9,1.1,3.69482222595252e-13,-5.09314812546791e-13,0,0,0,0
109,1,1.03148942286797,0.9,1.1,4.79616346638068e-14,9.70751257156621e-13,0,0,0,0
110,1,1.03596866429775,0.9,1.1,4.86721773995669e-13,-5.21804821573824e-13,0,0,0,0
111,1,1.02720606683774,0.9,1.1,-4.68673988507362e-11,-1.21590584822862e-10,0,0,0,0
112,1,1.04029177651492,0.9,1.1,-5.29354338141275e-13,-2.15105711021124e-13,0,0,0,0
113,1,1.03846353258554,0.9,1.1,-3.28803650972986e-11,-4.30440405541077e-11,0,0,0,0
114,1,1.03768322697876,0.9,1.1,-9.41469124882133e-14,-1.22957199977236e-12,0,0,0,0
115,1,1.04587250729997,0.9,1.1,-4.61852778244065e-14,4.31252256127834e-13,0,0,0,0
116,2,1.0461269814364,0.9,1.1,-1.56319401867222e-13,4.19220214098459e-13,0,0,0,0
117,1,1.04665915672177,0.9,1.1,-3.68238772807672e-12,-1.81694936873811e-12,0,0,0,0
118,1,1.0447011468791,0.9,1.1,4.79616346638068e-14,2.25271190590348e-12,0,0,0,0
119,1,1.04451646702691,0.9,1.1,3.01980662698043e-13,-1.50643386653826e-12,0,0,0,0
120,1,1.04476004426485,0.9,1.1,-6.03961325396085e-13,3.84761666971656e-13,0,0,0,0
121,1,1.04584205328826,0.9,1.1,1.63247193540883e-12,1.34267597040605e-13,0,0,0,0
122,1,1.04679957543406,0.9,1.1,2.77289302630379e-12,7.34655392076178e-13,0,0,0,0
123,1,1.04552868672276,0.9,1.1,-1.11910480882216e-13,-2.901845430614e-12,0,0,0,0
124,1,1.02600669484699,0.9,1.1,-9.59232693276135e-14,-2.12330153459561e-12,0,0,0,0
125,2,1.04179120265599,0.9,1.1,2.25952589971712e-12,1.18903151213878e-11,0,0,0,0
126,1,1.04177990990117,0.9,1.1,-4.34186020470406e-12,2.92613155927768e-12,0,0,0,0
127,2,1.03403471153277,0.9,1.1,-6.82121026329696e-13,-8.24229573481716e-13,0,0,0,0
128,2,1.0421532546769,0.9,1.1,3.06954461848363e-12,1.02415853575621e-11,0,0,0,0
129,1,1.01211067559359,0.9,1.1,1.19726450975577e-12,5.15490428121268e-12,0,0,0,0
130,1,1.01192365248619,0.9,1.1,-4.84146056578538e-12,2.60728938439314e-13,0,0,0,0
131,1,1.01631338945476,0.9,1.1,1.63424829224823e-13,1.4058199049316e-12,0,0,0,0
132,1,1.02885558310345,0.9,1.1,1.66235732874939e-12,-2.9099669430848e-12,0,0,0,0
133,1,1.02701342096144,0.9,1.1,-4.01456645704457e-13,-6.76542155630955e-14,0,0,0,0
134,1,1.00317767430008,0.9,1.1,3.62376795237651e-13,-1.01064989710409e-12,0,0,0,0
135,1,1.01037882634526,0.9,1.1,3.94484445109811e-11,1.37701829105996e-10,0,0,0,0
136,1,1.01101296282187,0.9,1.1,1.06226138996135e-12,9.82373904445666e-13,0,0,0,0
137,1,1.01443251411416,0.9,1.1,2.18491891246231e-13,-1.99389116328774e-12,0,0,0,0
138,2,1.01840654116138,0.9,1.1,2.93596258416073e-11,-1.70327751902732e-10,0,0,0,0
139,1,1.01873076486908,0.9,1.1,3.1342040074378e-11,-8.56995030495966e-11,0,0,0,0
140,1,1.01878128680263,0.9,1.1,-3.8012260006326e-11,-4.50119108652558e-11,0,0,0,0
141,1,1.01629735309837,0.9,1.1,6.83897383169096e-14,3.51749879223817e-12,0,0,0,0
142,1,1.01596276137417,0.9,1.1,1.26476606965298e-12,-1.86343995789429e-12,0,0,0,0
143,1,1.01901364900479,0.9,1.1,-1.01874064739604e-12,8.21911982917811e-13,0,0,0,0
144,1,1.01652749649185,0.9,1.1,2.17248441458651e-12,4.19976553533985e-13,0,0,0,0
145,1,1.01513027020907,0.9,1.1,-4.35118607811091e-12,1.31561428418081e-12,0,0,0,0
146,1,1.01473342753732,0.9,1.1,8.32653945792572e-11,8.73070712947843e-11,0,0,0,0
147,1,1.02380909094134,0.9,1.1,2.73558953267639e-13,-8.72236310955898e-12,0,0,0,0
148,1,1.0311069382924,0.9,1.1,-2.65565347490337e-13,2.16007767228632e-12,0,0,0,0
149,1,1.0295601191102,0.9,1.1,-4.20996570937859e-13,-8.77423134149069e-13,0,0,0,0
150,2,1.02961370087162,0.9,1.1,1.89626092605977e-11,-5.25923055105793e-11,0,0,0,0
151,1,1.02959419558055,0.9,1.1,9.46442924032453e-12,-5.76762596016245e-11,0,0,0,0
152,1,1.01833394465379,0.9,1.1,2.43360886997834e-13,1.28369537222284e-14,0,0,0,0
153,1,1.01671202824964,0.9,1.1,-8.45643555180686e-11,-3.47057625693648e-10,0,0,0,0
154,1,1.02346042973951,0.9,1.1,3.82804898890754e-12,1.2102818747195e-11,0,0,0,0
155,1,1.02319455502905,0.9,1.1,1.32782673745169e-12,-4.98819735517131e-13,0,0,0,0
156,1,1.02273216509737,0.9,1.1,1.74082970261225e-12,-4.56492482703297e-12,0,0,0,0
157,1,1.02271986429523,0.9,1.1,-5.78648240434632e-12,5.18481091393852e-11,0,0,0,0
158,1,1.02286452412297,0.9,1.1,1.55608859131462e-12,-4.68011046583783e-12,0,0,0,0
159,1,1.01742671298409,0.9,1.1,-2.18491891246231e-13,4.63344640433405e-13,0,0,0,0
160,1,1.01356425414325,0.9,1.1,-6.86322110254878e-11,-1.08963445905053e-10,0,0,0,0
161,2,1.00866171151636,0.9,1.1,2.02149408323749e-12,-2.40651942817749e-12,0,0,0,0
162,1,1.00863468858656,0.9,1.1,8.08419997611054e-12,2.07465988832922e-11,0,0,0,0
163,1,1.0086275249601,0.9,1.1,4.26698676392334e-11,3.32456284724003e-11,0,0,0,0
164,1,1.00862305953938,0.9,1.1,-2.17421636250492e-11,-2.84362811076022e-11,0,0,0,0
165,1,1.01110364130962,0.9,1.1,1.25099930414763e-12,-5.0559383069082e-12,0,0,0,0
166,1,1.01134145080704,0.9,1.1,-6.18527451479167e-12,5.81115017217471e-12,0,0,0,0
167,1,1.0176021981588,0.9,1.1,2.05009342835183e-11,-1.04161818059723e-10,0,0,0,0
168,1,1.0097635709062,0.9,1.1,8.93951579428176e-13,1.31821636939478e-12,0,0,0,0
169,1,1.01576555076154,0.9,1.1,-8.56203996590921e-13,-1.53245471867791e-12,0,0,0,0
170,1,1.01520533337055,0.9,1.1,-1.22035714866797e-11,-1.07958780803941e-11,0,0,0,0
171,1,1.01528414699079,0.9,1.1,7.85860265750671e-12,1.47562517760491e-11,0,0,0,0
172,1,1.01671555198672,0.9,1.1,3.30029337192173e-11,-1.76355458014754e-11,0,0,0,0
173,1,1.01908727713459,0.9,1.1,3.33955085807247e-13,5.2208237732998e-12,0,0,0,0
174,1,1.01817430614809,0.9,1.1,-9.15232334364191e-11,6.60908827665452e-11,0,0,0,0
175,1,1.01843062242607,0.9,1.1,-6.01296790136985e-12,-2.65208341398981e-10,0,0,0,0
176,1,1.01765884284353,0.9,1.1,3.02922131822925e-11,2.71994232692307e-11,0,0,0,0
177,1,1.01784626550311,0.9,1.1,1.19548815291637e-12,-2.11566875130131e-12,0,0,0,0
178,2,1.01776304547229,0.9,1.1,8.87112605596485e-12,-1.75480810438167e-10,0,0,0,0
179,1,1.01790711044312,0.9,1.1,2.56683563293336e-12,7.42843286882788e-12,0,0,0,0
180,1,1.01949523460772,0.9,1.1,3.14415160573844e-12,2.35381159008341e-11,0,0,0,0
181,1,1.01771025463135,0.9,1.1,-4.44977388269763e-12,-2.65284322287229e-11,0,0,0,0
182,1,1.01592105406629,0.9,1.1,4.45510295321583e-12,6.75952349649123e-12,0,0,0,0
183,1,1.01595653648184,0.9,1.1,1.03590025446465e-10,2.35655245317545e-10,0,0,0,0
184,1,1.02023828879505,0.9,1.1,-6.03961325396085e-14,8.88178419700125e-14,0,0,0,0
185,1,1.01677144994817,0.9,1.1,2.06465955443491e-11,-4.77142630961325e-11,0,0,0,0
186,1,1.05085602864749,0.9,1.1,4.44089209850063e-15,-4.42354486374086e-14,0,0,0,0
187,1,1.04645047515206,0.9,1.1,-9.76996261670138e-15,-4.99210048299226e-13,0,0,0,0
188,1,1.01735399020033,0.9,1.1,6.92779167366098e-14,2.15654317320402e-12,0,0,0,0
189,1,1.02633704113459,0.9,1.1,-4.77560213596462e-11,-9.57692055541561e-11,0,0,0,0
190,1,1.02306902355101,0.9,1.1,-1.77635683940025e-14,-3.5527136788005e-13,0,0,0,0
191,1,1.00821283562725,0.9,1.1,1.59872115546023e-13,-4.48252546192407e-13,0,0,0,0
192,1,1.01564357968125,0.9,1.1,-2.07478478841949e-12,5.31519273039294e-13,0,0,0,0
193,2,1.01225533437735,0.9,1.1,-2.8101965199312e-11,-4.05897537802957e-11,0,0,0,0
194,1,1.02007308605601,0.9,1.1,6.03961325396085e-14,-2.16813234032998e-11,0,0,0,0
195,1,1.02002573302607,0.9,1.1,1.30651045537888e-12,2.18101578464136e-11,0,0,0,0
196,1,1.01950311370938,0.9,1.1,-4.60076421404665e-13,-4.13991757541865e-13,0,0,0,0
197,1,1.02306739692145,0.9,1.1,4.36983782492462e-12,6.58709198297913e-12,0,0,0,0
198,1,1.01298026016203,0.9,1.1,5.18980414199177e-11,-7.81721909426381e-11,0,0,0,0
199,2,1.0144367076635,0.9,1.1,2.57394106029096e-12,-5.15212872365112e-13,0,0,0,0
200,1,1.01620400485648,0.9,1.1,3.61843888185831e-11,-4.97740737515073e-11,0,0,0,0
...
